/*--------------------------------*- C++ -*----------------------------------*\
  =========                 |
  \\      /  F ield         | OpenFOAM: The Open Source CFD Toolbox
   \\    /   O peration     | Website:  https://openfoam.org
    \\  /    A nd           | Version:  10
     \\/     M anipulation  |
\*---------------------------------------------------------------------------*/
FoamFile
{
    format      ascii;
    class       polyBoundaryMesh;
    location    "constant/polyMesh";
    object      boundary;
}
// * * * * * * * * * * * * * * * * * * * * * * * * * * * * * * * * * * * * * //

6
(
    front
    {
        type            empty;
        inGroups        List<word> 1(empty);
        nFaces          16;
        startFace       24;
    }
    back
    {
        type            empty;
        inGroups        List<word> 1(empty);
        nFaces          16;
        startFace       40;
    }
    top
    {
        type            wall;
        inGroups        List<word> 1(wall);
        nFaces          4;
        startFace       56;
    }
    bottom
    {
        type            wall;
        inGroups        List<word> 1(wall);
        nFaces          4;
        startFace       60;
    }
    left
    {
        type            wall;
        inGroups        List<word> 1(wall);
        nFaces          4;
        startFace       64;
    }
    right
    {
        type            wall;
        inGroups        List<word> 1(wall);
        nFaces          4;
        startFace       68;
    }
)

// ************************************************************************* //
