/*--------------------------------*- C++ -*----------------------------------*\
  =========                 |
  \\      /  F ield         | OpenFOAM: The Open Source CFD Toolbox
   \\    /   O peration     | Website:  https://openfoam.org
    \\  /    A nd           | Version:  10
     \\/     M anipulation  |
\*---------------------------------------------------------------------------*/
FoamFile
{
    format      ascii;
    class       polyBoundaryMesh;
    location    "constant/polyMesh";
    object      boundary;
}
// * * * * * * * * * * * * * * * * * * * * * * * * * * * * * * * * * * * * * //

6
(
    front
    {
        type            empty;
        inGroups        List<word> 1(empty);
        nFaces          1600;
        startFace       3120;
    }
    back
    {
        type            empty;
        inGroups        List<word> 1(empty);
        nFaces          1600;
        startFace       4720;
    }
    top
    {
        type            wall;
        inGroups        List<word> 1(wall);
        nFaces          40;
        startFace       6320;
    }
    bottom
    {
        type            wall;
        inGroups        List<word> 1(wall);
        nFaces          40;
        startFace       6360;
    }
    left
    {
        type            wall;
        inGroups        List<word> 1(wall);
        nFaces          40;
        startFace       6400;
    }
    right
    {
        type            wall;
        inGroups        List<word> 1(wall);
        nFaces          40;
        startFace       6440;
    }
)

// ************************************************************************* //
