/*--------------------------------*- C++ -*----------------------------------*\
  =========                 |
  \\      /  F ield         | OpenFOAM: The Open Source CFD Toolbox
   \\    /   O peration     | Website:  https://openfoam.org
    \\  /    A nd           | Version:  10
     \\/     M anipulation  |
\*---------------------------------------------------------------------------*/
FoamFile
{
    format      ascii;
    class       polyBoundaryMesh;
    location    "constant/polyMesh";
    object      boundary;
}
// * * * * * * * * * * * * * * * * * * * * * * * * * * * * * * * * * * * * * //

6
(
    front
    {
        type            empty;
        inGroups        List<word> 1(empty);
        nFaces          6300;
        startFace       12279;
    }
    back
    {
        type            empty;
        inGroups        List<word> 1(empty);
        nFaces          6300;
        startFace       18579;
    }
    top
    {
        type            wall;
        inGroups        List<word> 1(wall);
        nFaces          300;
        startFace       24879;
    }
    bottom
    {
        type            wall;
        inGroups        List<word> 1(wall);
        nFaces          300;
        startFace       25179;
    }
    left
    {
        type            wall;
        inGroups        List<word> 1(wall);
        nFaces          21;
        startFace       25479;
    }
    right
    {
        type            wall;
        inGroups        List<word> 1(wall);
        nFaces          21;
        startFace       25500;
    }
)

// ************************************************************************* //
