/*--------------------------------*- C++ -*----------------------------------*\
  =========                 |
  \\      /  F ield         | OpenFOAM: The Open Source CFD Toolbox
   \\    /   O peration     | Website:  https://openfoam.org
    \\  /    A nd           | Version:  10
     \\/     M anipulation  |
\*---------------------------------------------------------------------------*/
FoamFile
{
    format      ascii;
    class       polyBoundaryMesh;
    location    "constant/polyMesh";
    object      boundary;
}
// * * * * * * * * * * * * * * * * * * * * * * * * * * * * * * * * * * * * * //

6
(
    front
    {
        type            empty;
        inGroups        List<word> 1(empty);
        nFaces          9;
        startFace       12;
    }
    back
    {
        type            empty;
        inGroups        List<word> 1(empty);
        nFaces          9;
        startFace       21;
    }
    top
    {
        type            wall;
        inGroups        List<word> 1(wall);
        nFaces          3;
        startFace       30;
    }
    bottom
    {
        type            wall;
        inGroups        List<word> 1(wall);
        nFaces          3;
        startFace       33;
    }
    left
    {
        type            wall;
        inGroups        List<word> 1(wall);
        nFaces          3;
        startFace       36;
    }
    right
    {
        type            wall;
        inGroups        List<word> 1(wall);
        nFaces          3;
        startFace       39;
    }
)

// ************************************************************************* //
