/*--------------------------------*- C++ -*----------------------------------*\
  =========                 |
  \\      /  F ield         | OpenFOAM: The Open Source CFD Toolbox
   \\    /   O peration     | Website:  https://openfoam.org
    \\  /    A nd           | Version:  10
     \\/     M anipulation  |
\*---------------------------------------------------------------------------*/
FoamFile
{
    format      ascii;
    class       dictionary;
    object      blockMeshDict;
}
// * * * * * * * * * * * * * * * * * * * * * * * * * * * * * * * * * * * * * //

convertToMeters 1;

xmin 0.0;
xmax 300;
ymin 0.0;
ymax 10.5;
zmin 0.0;
zmax 0.01;

deltax 1.0;
deltay 0.5;
deltaz 0.01;

xLen #calc "$xmax - $xmin";
yLen #calc "$ymax - $ymin";
zLen #calc "$zmax - $zmin";

xCells #calc "round($xLen / $deltax)";
yCells #calc "round($yLen / $deltay)";
zCells #calc "round($zLen / $deltaz)";

vertices
(
    ($xmin $ymin $zmin)
    ($xmax $ymin $zmin)
    ($xmax $ymax $zmin)
    ($xmin $ymax $zmin)
    ($xmin $ymin $zmax)
    ($xmax $ymin $zmax)
    ($xmax $ymax $zmax)
    ($xmin $ymax $zmax)
);

blocks
(
    hex (0 1 2 3 4 5 6 7) ($xCells $yCells $zCells) simpleGrading (1 1 1)
);

boundary
(
    front
    {
        type empty;
        faces
        (
            (0 3 2 1)
        );
    }
    back
    {
        type empty;
        faces
        (
            (4 5 6 7)
        );
    }
    top
    {
    	type wall;
	faces
	(
            (3 7 6 2)
	);
    }
    bottom
    {
    	type wall;
	faces
	(
            (1 5 4 0)
	);
    }
    left
    {
        type wall;
        faces
        (
            (0 4 7 3)
        );
    }
    right
    {
        type wall;
        faces
        (
            (2 6 5 1)
        );
    }
);


// ************************************************************************* //
